model_output_tests/dss/WSU/Master-unbal-new.dss
// Master file for 9500-Node IEEE Test Feeder Case
// Unbalanced Load Case

Clear

New Circuit.Test9500new

! Make the source stiff with small impedance
~ pu=1.05  r1=0  x1=0.001  r0=0  x0=0.001  

Redirect  LineCodes.dss
Redirect  TriplexLineCodes.dss

Redirect  LinesSwitches.dss
Redirect  Transformers.dss
Redirect  LoadXfmrCodes.dss
Redirect  TriplexLines.dss
Redirect  UnbalancedLoads.dss
Redirect  Capacitors.dss
Redirect  CapControls.dss
Redirect  Regulators.dss

Redirect  Generators.dss
Redirect  EnergyStorage.dss
Redirect  PV_10pen_DSSPV.dss
Redirect  PV_NN_100_DSSPV.dss

! Let DSS estimate the voltage bases
Set voltagebases=[115, 69, 12.47,  0.480, 0.208] 
Calcvoltagebases     ! This also establishes the bus list

! Load in bus coordintes now that bus list is established
!Buscoords  BusCoords.dss
LatLongCoords LatLongCoords.dss

New Energymeter.m1 Element=Line.LN5710794-3 Terminal=1


Set Maxiterations=30     ! Sometimes the solution takes more than the default 15 iterations
Set MaxControlIter=100

! Generator Configuration
! CHP ON at 30! capacity, Solar ON at 90! capacity
Generator.SteamGen1.kw=1000
Generator.PVFarm1.kw=450
Generator.MicroTurb-1.kw=50
Generator.MicroTurb-2.enabled=0
Generator.MicroTurb-3.enabled=0
Generator.MicroTurb-4.kw=100
Generator.Diesel620.enabled=0
Generator.Diesel590.enabled=0
Generator.LNGEngine100.enabled=0
Generator.LNGEngine1800.enabled=0

! Set normal feeder configuration
open LINE.LN0653457_SW
open LINE.V7173_48332_SW
open LINE.TSW803273_SW 
open LINE.A333_48332_SW 
solve
open LINE.TSW320328_SW  
open LINE.A8645_48332_SW
open LINE.TSW568613_SW
